[General]
network = spine4s

warnings = true
sim-time-limit = 12s

**.tcp.typename = "Tcp"
**.tcp.advertisedWindow = 65535
**.tcp.delayedAcksEnabled = false
**.tcp.increasedIWEnabled = false
**.tcp.limitedTransmitEnabled = false
**.tcp.mss = 1452
**.tcp.nagleEnabled = true
**.tcp.recordStats = true
**.tcp.sackSupport = false
#**.tcp.tcpAlgorithmClass = "TCPNoCongestionControl"
#**.tcp.tcpAlgorithmClass = "DCTCP"
**.tcp.tcpAlgorithmClass = default
#**.tcp.tcpAlgorithmClass = "TcpNewReno"
**.tcp.timestampSupport = true
**.tcp.windowScalingSupport = true

#**.crcMode = "computed"

## tcp apps

**.s*.app[*].typename = "TcpSessionApp"
**.s*.app[*].active = true
**.s*.app[*].sendScript = ""
**.s*.app[*].tClose = 15s

**.s1.numApps = 1
**.s1.app[0].tOpen = 10s
**.s1.app[0].tSend = 10s
**.s1.app[0].localPort = 4
**.s1.app[0].connectAddress = "r1"
**.s1.app[0].connectPort = 10
**.s1.app[*].sendBytes = 10000000B

**.s2.numApps = 1
**.s2.app[0].tOpen = 10s
**.s2.app[0].tSend = 10s
**.s2.app[0].localPort = 4
**.s2.app[0].connectAddress = "r2"
**.s2.app[0].connectPort = 10
**.s2.app[*].sendBytes = 10000000B

**.s3.numApps = 1
**.s3.app[0].tOpen = 10s
**.s3.app[0].tSend = 10s
**.s3.app[0].localPort = 4
**.s3.app[0].connectAddress = "r3"
**.s3.app[0].connectPort = 10
**.s3.app[0].sendBytes = 10000000B

**.s4.numApps = 1
**.s4.app[0].tOpen = 10s
**.s4.app[0].tSend = 10s
**.s4.app[0].localPort = 4
**.s4.app[0].connectAddress = "r4"
**.s4.app[0].connectPort = 10
**.s4.app[*].sendBytes = 10000000B

**.s5.numApps = 1
**.s5.app[0].tOpen = 10s
**.s5.app[0].tSend = 10s
**.s5.app[0].localPort = 4
**.s5.app[0].connectAddress = "r5"
**.s5.app[0].connectPort = 10
**.s5.app[0].sendBytes = 10000000B

**.s6.numApps = 1
**.s6.app[0].tOpen = 10s
**.s6.app[0].tSend = 10s
**.s6.app[0].localPort = 4
**.s6.app[0].connectAddress = "r6"
**.s6.app[0].connectPort = 10
**.s6.app[0].sendBytes = 10000000B

**.s7.numApps = 1
**.s7.app[0].tOpen = 10s
**.s7.app[0].tSend = 10s
**.s7.app[0].localPort = 4
**.s7.app[0].connectAddress = "r1"
**.s7.app[0].connectPort = 10
**.s7.app[0].sendBytes = 10000000B

**.s8.numApps = 1
**.s8.app[0].tOpen = 10s
**.s8.app[0].tSend = 10s
**.s8.app[0].localPort = 4
**.s8.app[0].connectAddress = "r2"
**.s8.app[0].connectPort = 10
**.s8.app[0].sendBytes = 10000000B

**.s9.numApps = 1
**.s9.app[0].tOpen = 10s
**.s9.app[0].tSend = 10s
**.s9.app[0].localPort = 4
**.s9.app[0].connectAddress = "r3"
**.s9.app[0].connectPort = 10
**.s9.app[0].sendBytes = 10000000B

**.s10.numApps = 1
**.s10.app[0].tOpen = 10s
**.s10.app[0].tSend = 10s
**.s10.app[0].localPort = 4
**.s10.app[0].connectAddress = "r4"
**.s10.app[0].connectPort = 10
**.s10.app[0].sendBytes = 10000000B

**.s11.numApps = 1
**.s11.app[0].tOpen = 10s
**.s11.app[0].tSend = 10s
**.s11.app[0].localPort = 4
**.s11.app[0].connectAddress = "r5"
**.s11.app[0].connectPort = 10
**.s11.app[0].sendBytes = 10000000B

**.s12.numApps = 1
**.s12.app[0].tOpen = 10s
**.s12.app[0].tSend = 10s
**.s12.app[0].localPort = 4
**.s12.app[0].connectAddress = "r6"
**.s12.app[0].connectPort = 10
**.s12.app[0].sendBytes = 10000000B

**.s13.numApps = 1
**.s13.app[0].tOpen = 10s
**.s13.app[0].tSend = 10s
**.s13.app[0].localPort = 4
**.s13.app[0].connectAddress = "r1"
**.s13.app[0].connectPort = 10
**.s13.app[0].sendBytes = 10000000B

**.s14.numApps = 1
**.s14.app[0].tOpen = 10s
**.s14.app[0].tSend = 10s
**.s14.app[0].localPort = 4
**.s14.app[0].connectAddress = "r2"
**.s14.app[0].connectPort = 10
**.s14.app[0].sendBytes = 10000000B

**.s15.numApps = 1
**.s15.app[0].tOpen = 10s
**.s15.app[0].tSend = 10s
**.s15.app[0].localPort = 4
**.s15.app[0].connectAddress = "r3"
**.s15.app[0].connectPort = 10
**.s15.app[0].sendBytes = 10000000B

**.s16.numApps = 1
**.s16.app[0].tOpen = 10s
**.s16.app[0].tSend = 10s
**.s16.app[0].localPort = 4
**.s16.app[0].connectAddress = "r4"
**.s16.app[0].connectPort = 10
**.s16.app[0].sendBytes = 10000000B

**.s17.numApps = 1
**.s17.app[0].tOpen = 10s
**.s17.app[0].tSend = 10s
**.s17.app[0].localPort = 4
**.s17.app[0].connectAddress = "r5"
**.s17.app[0].connectPort = 10
**.s17.app[0].sendBytes = 10000000B

**.s18.numApps = 1
**.s18.app[0].tOpen = 10s
**.s18.app[0].tSend = 10s
**.s18.app[0].localPort = 4
**.s18.app[0].connectAddress = "r6"
**.s18.app[0].connectPort = 10
**.s18.app[0].sendBytes = 10000000B

**.r1.numApps = 1
**.r1.app[*].typename = "TcpSinkApp"
**.r1.app[0].localPort = 10

**.r2.numApps = 1
**.r2.app[*].typename = "TcpSinkApp"
**.r2.app[0].localPort = 10

**.r3.numApps = 1
**.r3.app[*].typename = "TcpSinkApp"
**.r3.app[0].localPort = 10

**.r4.numApps = 1
**.r4.app[*].typename = "TcpSinkApp"
**.r4.app[0].localPort = 10

**.r5.numApps = 1
**.r5.app[*].typename = "TcpSinkApp"
**.r5.app[0].localPort = 10

**.r6.numApps = 1
**.r6.app[*].typename = "TcpSinkApp"
**.r6.app[0].localPort = 10

#**.eth[*].queueType = "DropTailQueue"
#**.eth[*].queueType = "REDqueue"
#**.eth[*].numOutputHooks = 1
#**.eth[*].outputHook[*].typename = "ThruputMeter"

**.*.hasOspf = true
**.ospf.ospfConfig = xmldoc("4Config.xml")
**.ospf.helloInterval = 1s
**.ospf.retransmissionInterval = 1s
**.ospf.interfaceTransmissionDelay = 1s
**.ospf.routerDeadInterval = 40s
**.ospf.authentication.typename = "NullType"
**.ospf.authenticationKey = "0x00"

#**.*.AngryCredits.enableMP = true
#**.*.AngryCredits.mp_algorithm = 0
**.spine*.ipv4.ip.enableMultiPath = true
**.leaf*.ipv4.ip.enableMultiPath = true
**.spine*.ipv4.ip.useEcmp = true
**.leaf*.ipv4.ip.useEcmp = true
**.*.sum_paths = 4
**.*.AngryCredits.sumpaths = 4

**.*.AngryCredits.useECN = true 
**.*.AngryCredits.randomspreading = true

**.*.eth[*].queue.typename= "xpassQueue"
**.eth[*].queue.*.frameCapacity = 120
**.*.AngryCredits.activate = true
**.*.AngryCredits.ratecontrol = true
**.*.AngryCredits.linkspeed = 10^10
**.*.AngryCredits.bits_timeout = 40000
**.*.AngryCredits.ReOrder = true

**.*.thruputMeter.startTime = 10s
**.*.thruputMeter.batchSize = 1000
**.*.thruputMeter.maxInterval = 0.001s

**.s*.eth[*].queue.creditDelayer.delay = uniform(0.00000001ms,0.00001ms)
**.r*.eth[*].queue.creditDelayer.delay = uniform(0.00000001ms,0.00001ms)

**.channel.utilization.result-recording-modes = timeavg
**.channel.utilization.statistic-recording = true


# Ethernet switch
