[General]
network = dcqcnmixec4

warnings = true
sim-time-limit = 1s

# udp app configuration
**.s*.numApps = 1
**.s*.app[0].typename = "DcqcnBasicApp"
**.s*.app[0].localPort = 100
**.s*.app[0].destPort = 100
**.s*.app[0].messageLength = 14680000000B 
**.s*.app[0].sendInterval = 1s + uniform(-0.000009s,0.000009s)
**.s*.app[0].AppPrioirty = 0

**.s11.app[0].destAddresses = "r11"
**.s11.app[0].localAddress = "s11"
**.s11.app[0].startTime = 0s
**.s11.app[0].stopTime = 11s

**.s12.app[0].destAddresses = "r12"
**.s12.app[0].localAddress = "s12"
**.s12.app[0].startTime = 10.01s
**.s12.app[0].stopTime = 11s

**.s13.app[0].destAddresses = "r13"
**.s13.app[0].localAddress = "s13"
**.s13.app[0].startTime = 10.02s
**.s13.app[0].stopTime = 11s

**.s14.app[0].destAddresses = "r14"
**.s14.app[0].localAddress = "s14"
**.s14.app[0].startTime = 10.03s
**.s14.app[0].stopTime = 11s

**.s15.app[0].destAddresses = "r15"
**.s15.app[0].localAddress = "s15"
**.s15.app[0].startTime = 10.04s
**.s15.app[0].stopTime = 10.12s

**.s21.app[0].destAddresses = "r21"
**.s21.app[0].localAddress = "s21"
**.s21.app[0].startTime = 0.01s
**.s21.app[0].stopTime = 12s

**.s22.app[0].destAddresses = "r22"
**.s22.app[0].localAddress = "s22"
**.s22.app[0].startTime = 10.015s
**.s22.app[0].stopTime = 12s

**.s23.app[0].destAddresses = "r23"
**.s23.app[0].localAddress = "s23"
**.s23.app[0].startTime = 10.025s
**.s23.app[0].stopTime = 12s

**.s24.app[0].destAddresses = "r24"
**.s24.app[0].localAddress = "s24"
**.s24.app[0].startTime = 10.035s
**.s24.app[0].stopTime = 12s

**.s25.app[0].destAddresses = "r25"
**.s25.app[0].localAddress = "s25"
**.s25.app[0].startTime = 10.045s
**.s25.app[0].stopTime = 12s

**.r*.numApps = 1
**.r*.app[0].typename = "UdpSink"
**.r*.app[0].localPort = 100
**.r*.app[0].linkSpeed = 10000Mbps

**.*.dcqcn.activate = true
**.*.dcqcn.linkspeed = 10Gbps
**.*.dcqcn.AlphaTimer_th = 55us
**.*.dcqcn.RateTimer_th = 55us
**.*.dcqcn.min_cnp_interval = 16us
**.*.dcqcn.ByteCounter_th = 15000B
**.*.dcqcn.gamma = 1/16
**.*.dcqcn.Rai = 40Mbps
**.*.dcqcn.Rhai = 100Mbps

**.*.ec4.activate = true
**.*.ec4.ratecontrol = true
**.*.ec4.linkspeed = 10Gbps
**.*.ec4.AlphaTimer_th =400us
**.*.ec4.RateTimer_th =400us
**.*.ec4.ByteCounter_th = 200000B
**.*.ec4.gamma=1/256
**.*.ec4.Rai = 40Mbps
**.*.ec4.Rhai = 100Mbps

**.*.eth[*].queue.typename="RedEcnQueue"

**.*.eth[*].queue.enableEcn = true #in RedEcnQueue.ned
**.*.eth[*].queue.bufferCapacity = 300000B
**.*.eth[*].queue.kmin = 50000B
**.*.eth[*].queue.kmax = 200000B
**.*.eth[*].queue.pmax=0.01

**.*.thruputMeter.startTime = 0s
**.*.thruputMeter.endTime = 10s
**.*.thruputMeter.batchSize = 100000
**.*.thruputMeter.maxInterval = 0.01s