[General]
network = test
warnings=true
sim-time-limit=1s

**.s*.numApps = 1
**.s*.app[0].typename = "UdpFlowApp"
**.s*.app[0].localPort = 100
**.s*.app[0].destPort = 100
**.s*.app[0].messageLength = 1500B 
#**.s1*.app[0].messageLength = 1468000B # turn into 1526 bytes Ether Frame
**.s*.app[0].linkSpeed=10Gbps
**.s*.app[0].startTime=0s
**.s*.app[0].stopTime=1s
**.s*.app[0].destAddresses="r1"

**.r*.numApps = 1
**.r*.app[0].typename = "UdpSink"
**.r*.app[0].localPort = 100
**.r*.app[0].linkSpeed = 10000Mbps
