[General]
network = dctcpmixec4

warnings = true
sim-time-limit = 1s


# udp app configuration
**.s*.numApps = 1
**.s1*.app[0].typename="TcpFlowApp"
**.s2*.app[0].typename = "UdpFlowApp"
**.s*.app[0].localPort = 100
**.s*.app[0].destPort = 100
**.s2*.app[0].messageLength = 1440B
**.s1*.app[0].sendBytes=144000000B
**.s1*.app[0].connectPort=100
**.s*.app[0].linkSpeed=10Gbps
**.s1*.app[0].tSend=0s


**.s11.app[0].connectAddress = "r11"
**.s11.app[0].localAddress = "s11"
**.s11.app[0].tOpen = 0s
**.s11.app[0].tClose = 11s

**.s12.app[0].connectAddress = "r12"
**.s12.app[0].localAddress = "s12"
**.s12.app[0].tOpen = 10.01s
**.s12.app[0].tClose = 11s

**.s13.app[0].connectAddress = "r13"
**.s13.app[0].localAddress = "s13"
**.s13.app[0].tOpen = 10.02s
**.s13.app[0].tClose = 11s

**.s14.app[0].connectAddress = "r14"
**.s14.app[0].localAddress = "s14"
**.s14.app[0].tOpen = 10.03s
**.s14.app[0].tClose = 11s

**.s15.app[0].connectAddress = "r15"
**.s15.app[0].localAddress = "s15"
**.s15.app[0].tOpen = 10.04s
**.s15.app[0].tClose = 10.12s

**.s21.app[0].destAddresses = "r21"
**.s21.app[0].localAddress = "s21"
**.s21.app[0].startTime = 0.005s
**.s21.app[0].stopTime = 12s

**.s22.app[0].destAddresses = "r22"
**.s22.app[0].localAddress = "s22"
**.s22.app[0].startTime = 10.015s
**.s22.app[0].stopTime = 12s

**.s23.app[0].destAddresses = "r23"
**.s23.app[0].localAddress = "s23"
**.s23.app[0].startTime = 10.025s
**.s23.app[0].stopTime = 12s

**.s24.app[0].destAddresses = "r24"
**.s24.app[0].localAddress = "s24"
**.s24.app[0].startTime = 10.035s
**.s24.app[0].stopTime = 12s

**.s25.app[0].destAddresses = "r25"
**.s25.app[0].localAddress = "s25"
**.s25.app[0].startTime = 10.045s
**.s25.app[0].stopTime = 12s

**.r*.numApps = 1
**.r2*.app[0].typename = "UdpSink"
**.r1*.app[0].typename = "TcpSinkApp"
#**.r1*.app[0].localPort=10
**.r*.app[0].localPort = 100
**.r*.app[0].linkSpeed = 10000Mbps

**.s1*.tcp.typename="Tcp"
**.s1*.tcp.advertisedWindow= 65535*10
**.s1*.tcp.increasedIWEnabled=true
**.s1*.tcp.limitedTransmitEnabled=true
**.s1*.tcp.mss=1452
**.s1*.tcp.recordStats=true
**.s1*.tcp.tcpAlgorithmClass="DCTCP"
**.s1*.tcp.timestampSupport=true
**.s1*.tcp.windowScalingSupport=true

**.*.ec4.activate = true
**.*.ec4.ratecontrol = true
**.*.ec4.linkspeed = 10Gbps
**.*.ec4.useTokens=true

**.*.eth[*].queue.*.enablePfc = false
**.s1*.eth[*].queue.*.enableEcn = true
**.*.eth[*].queue.*.kmin = 5000B
**.*.eth[*].queue.*.kmax = 200000B
**.*.eth[*].queue.*.pmax = 0.01

**.*.eth[*].queue.*.shareBufferEcn = true
**.*.eth[*].queue.*.EcnKmin = 5000B 
**.*.eth[*].queue.*.EcnKmax = 200000B
**.*.eth[*].queue.*.EcnPmax = 0.01

#**.eth[*].queue.typename= "DropTailQueue"
**.*.eth[*].queue.typename= "PriorityQueue"
**.eth[*].queue.*.frameCapacity = 150

**.Router*.eth[*].encap.typename = "EtherEncap"
#**.Router*.eth[*].encap.linkspeed = 100Gbps

**.r*.eth[*].queue.creditDelayer.delay = uniform(10ns,1us) # for fair dropping the credits, time jitter

**.*.thruputMeter.startTime = 0s
**.*.thruputMeter.endTime = 10s
**.*.thruputMeter.batchSize = 100000
**.*.thruputMeter.maxInterval = 0.001s