[General]
network = mccm0415

warnings = true
sim-time-limit = 12s

**.tcp.typename = "Tcp"
**.tcp.advertisedWindow = 65535
**.tcp.increasedIWEnabled = false
**.tcp.limitedTransmitEnabled = false
**.tcp.mss = 1452
**.tcp.nagleEnabled = true
**.tcp.recordStats = true
**.tcp.sackSupport = false
#**.tcp.tcpAlgorithmClass = "TcpNoCongestionControl"
#**.tcp.delayedAcksEnabled = true
#**.tcp.tcpAlgorithmClass = "DCTCP"
#**.tcp.tcpAlgorithmClass = default
**.tcp.tcpAlgorithmClass = "TcpNewReno"
**.tcp.timestampSupport = true
**.tcp.windowScalingSupport = true

#**.crcMode = "computed"

## tcp apps

**.s*.app[*].tClose = 15s

**.s*.app[*].sendBytes = 1000000B

**.s1.numApps = 1
**.s1.app[0].typename = "TcpSinkApp"
**.s1.app[0].localPort = 10

**.s5.numApps = 1
**.s5.app[0].typename = "TcpSinkApp"
**.s5.app[0].localPort = 10

**.s9.numApps = 1
**.s9.app[0].typename = "TcpSinkApp"
**.s9.app[0].localPort = 10

**.s13.numApps = 1
**.s13.app[0].typename = "TcpSinkApp"
**.s13.app[0].localPort = 10

**.s17.numApps = 1
**.s17.app[0].typename = "TcpSinkApp"
**.s17.app[0].localPort = 10

**.s21.numApps = 1
**.s21.app[0].typename = "TcpSinkApp"
**.s21.app[0].localPort = 10

**.s25.numApps = 1
**.s25.app[0].typename = "TcpSinkApp"
**.s25.app[0].localPort = 10

**.s29.numApps = 1
**.s29.app[0].typename = "TcpSinkApp"
**.s29.app[0].localPort = 10

**.s1*.app[*].typename = "TcpSessionApp"
**.s1*.numApps = 1
**.s1*.app[0].tOpen = 10s
**.s1*.app[0].tSend = 10s
**.s1*.app[0].localPort = 4
**.s1*.app[0].connectAddress = "s1"
**.s1*.app[0].connectPort = 10

**.s2*.app[*].typename = "TcpSessionApp"
**.s2*.numApps = 1
**.s2*.app[0].tOpen = 10s
**.s2*.app[0].tSend = 10s
**.s2*.app[0].localPort = 4
**.s2*.app[0].connectAddress = "s13"
**.s2*.app[0].connectPort = 10

**.s3*.app[*].typename = "TcpSessionApp"
**.s3*.numApps = 1
**.s3*.app[0].tOpen = 10s
**.s3*.app[0].tSend = 10s
**.s3*.app[0].localPort = 4
**.s3*.app[0].connectAddress = "s25"
**.s3*.app[0].connectPort = 10

**.configurator.config = xmldoc("networkConfig.xml")
**.configurator.addStaticRoutes = true
**.configurator.assignAddresses = true

**.*.hasOspf = true
**.ospf.ospfConfig = xmldoc("Config.xml")
**.ospf.helloInterval = 1s
**.ospf.retransmissionInterval= 1s
**.ospf.interfaceTransmissionDelay = 1s
**.ospf.routerDeadInterval = 100s
**.ospf.authentication.typename = "NullType"
**.ospf.authenticationKey = "0x00"

#**.*.AngryCredits.mp_algorithm = 0
#**.*.AngryCredits.enableMP = true
#**.Cor*.ipv4.ip.enableMultiPath = true
**.Cor*.ipv4.ip.useEcmp = true
**.*.sum_paths = 2
**.*.AngryCredits.sumpaths = 4

**.*.AngryCredits.useECN = true 
**.*.AngryCredits.randomspreading = true
**.*.AngryCredits.bits_timeout = 100000
**.*.AngryCredits.ReOrder = true

#**.eth[*].mac.promiscuous = true
**.*.eth[*].queue.typename= "xpassQueue"
**.eth[*].queue.*.frameCapacity = 150
#**.*.AngryCredits.activate = true
**.*.AngryCredits.ratecontrol = true
**.*.AngryCredits.linkspeed = 10^9

**.*.thruputMeter.startTime = 10s
**.*.thruputMeter.batchSize = 1000
**.*.thruputMeter.maxInterval = 0.001s

**.s*.eth[*].queue.creditDelayer.delay = uniform(0.000000001ms,0.000001ms)
**.r*.eth[*].queue.creditDelayer.delay = uniform(0.000000001ms,0.000001ms)

**.channel.utilization.result-recording-modes = timeavg
**.channel.utilization.statistic-recording = true

# Ethernet switch
